
#######################################################################
#
#                 Cambridge Crystallographic Data Centre
#                                CCDC 
#
#######################################################################
#
# If this CIF has been generated from an entry in the Cambridge 
# Structural Database, then it will include bibliographic, chemical, 
# crystal, experimental, refinement or atomic coordinate data resulting 
# from the CCDC's data processing and validation procedures.
#
#######################################################################

data_BENZAC01
_symmetry_cell_setting           monoclinic
_symmetry_space_group_name_H-M   'P 21/c'
_symmetry_Int_Tables_number      14
_space_group_name_Hall           '-P 2ybc'
loop_
_symmetry_equiv_pos_site_id
_symmetry_equiv_pos_as_xyz
1 x,y,z
2 -x,1/2+y,1/2-z
3 -x,-y,-z
4 x,1/2-y,1/2+z
_cell_length_a                   5.510(5)
_cell_length_b                   5.157(6)
_cell_length_c                   21.973(8)
_cell_angle_alpha                90
_cell_angle_beta                 97.41(8)
_cell_angle_gamma                90
_cell_volume                     619.15
loop_
_atom_site_label
_atom_site_type_symbol
_atom_site_fract_x
_atom_site_fract_y
_atom_site_fract_z
O1 O 0.22130 0.23720 0.01320
O2 O -0.09080 0.14100 0.06470
C1 C 0.10010 0.27130 0.05760
C2 C 0.18160 0.47400 0.10370
C3 C 0.38490 0.62650 0.09700
C4 C 0.45960 0.81820 0.14060
C5 C 0.33170 0.85340 0.19020
C6 C 0.12990 0.70240 0.19650
C7 C 0.05330 0.51330 0.15340
H1 H 0.47300 0.59900 0.06100
H2 H 0.60600 0.92400 0.13600
H3 H 0.38200 0.99100 0.22100
H4 H 0.04100 0.73000 0.23200
H5 H -0.09100 0.40500 0.15800
H6 H -0.13600 0.01300 0.03800
O1 O 0.77870 -0.26280 0.48680
O2 O 1.09080 -0.35900 0.43530
C1 C 0.89990 -0.22870 0.44240
C2 C 0.81840 -0.02600 0.39630
C3 C 0.61510 0.12650 0.40300
C4 C 0.54040 0.31820 0.35940
C5 C 0.66830 0.35340 0.30980
C6 C 0.87010 0.20240 0.30350
C7 C 0.94670 0.01330 0.34660
H1 H 0.52700 0.09900 0.43900
H2 H 0.39400 0.42400 0.36400
H3 H 0.61800 0.49100 0.27900
H4 H 0.95900 0.23000 0.26800
H5 H 1.09100 -0.09500 0.34200
H6 H 1.13600 -0.48700 0.46200
O1 O 0.77870 0.76280 0.98680
O2 O 1.09080 0.85900 0.93530
C1 C 0.89990 0.72870 0.94240
C2 C 0.81840 0.52600 0.89630
C3 C 0.61510 0.37350 0.90300
C4 C 0.54040 0.18180 0.85940
C5 C 0.66830 0.14660 0.80980
C6 C 0.87010 0.29760 0.80350
C7 C 0.94670 0.48670 0.84660
H1 H 0.52700 0.40100 0.93900
H2 H 0.39400 0.07600 0.86400
H3 H 0.61800 0.00900 0.77900
H4 H 0.95900 0.27000 0.76800
H5 H 1.09100 0.59500 0.84200
H6 H 1.13600 0.98700 0.96200
O1 O 0.22130 1.26280 0.51320
O2 O -0.09080 1.35900 0.56470
C1 C 0.10010 1.22870 0.55760
C2 C 0.18160 1.02600 0.60370
C3 C 0.38490 0.87350 0.59700
C4 C 0.45960 0.68180 0.64060
C5 C 0.33170 0.64660 0.69020
C6 C 0.12990 0.79760 0.69650
C7 C 0.05330 0.98670 0.65340
H1 H 0.47300 0.90100 0.56100
H2 H 0.60600 0.57600 0.63600
H3 H 0.38200 0.50900 0.72100
H4 H 0.04100 0.77000 0.73200
H5 H -0.09100 1.09500 0.65800
H6 H -0.13600 1.48700 0.53800

#END
